[General]
network = MultiNodeNetwork
sim-time-limit = 20s



*.node*.sendInterval = truncnormal(1s, 0.5s)
**.result-recording-modes = +vector, +histogram
